Circuit: * D:\Clones\LINFO1140\T1 - Circuits DC\T1.asc

Direct Newton iteration for .op point succeeded.

Date: Tue Feb 09 08:27:07 2021
Total elapsed time: 0.015 seconds.

tnom = 27
temp = 27
method = trap
totiter = 3
traniter = 0
tranpoints = 0
accept = 0
rejected = 0
matrix size = 6
fillins = 0
solver = Normal
Matrix Compiler1: 280 bytes object code size
Matrix Compiler2: 428 bytes object code size
