Circuit: * D:\Clones\LINFO1140\T3 - Circuits équivalents\Norton\norton.asc

Direct Newton iteration for .op point succeeded.

Date: Fri Feb 26 23:59:34 2021
Total elapsed time: 0.015 seconds.

tnom = 27
temp = 27
method = trap
totiter = 3
traniter = 0
tranpoints = 0
accept = 0
rejected = 0
matrix size = 1
fillins = 0
solver = Normal
Matrix Compiler1: off
Matrix Compiler2: 43 bytes object code size
