Circuit: * D:\Clones\LINFO1140\T3 - Circuits équivalents\Circuit\T3.asc

WARNING: Less than two connections to node A.  This node is used by R4.
WARNING: Less than two connections to node B.  This node is used by R5.
Direct Newton iteration for .op point succeeded.

Date: Sat Feb 27 00:13:59 2021
Total elapsed time: 0.015 seconds.

tnom = 27
temp = 27
method = trap
totiter = 3
traniter = 0
tranpoints = 0
accept = 0
rejected = 0
matrix size = 7
fillins = 0
solver = Normal
Matrix Compiler1: 196 bytes object code size
Matrix Compiler2: 433 bytes object code size
