Circuit: * D:\Clones\LINFO1140\T3 - Circuits équivalents\Thévenin\thevenin.asc

Direct Newton iteration for .op point succeeded.

Date: Fri Feb 26 23:09:41 2021
Total elapsed time: 0.014 seconds.

tnom = 27
temp = 27
method = trap
totiter = 3
traniter = 0
tranpoints = 0
accept = 0
rejected = 0
matrix size = 3
fillins = 0
solver = Normal
Matrix Compiler1: 50 bytes object code size
Matrix Compiler2: 175 bytes object code size
