Circuit: * C:\Users\floew\OneDrive\Documents\Github\LINFO1140\T8 - Circuits séquentiels\Circuit\Circuit.asc

Warning: Multiple definitions of model "aons66402" Type: Vdmos1
Direct Newton iteration failed to find .op point.  (Use ".option noopiter" to skip.)
Starting Gmin stepping
Gmin = 10
Gmin = 1.07374
Gmin = 0.115292
Gmin = 0.0123794
Gmin = 0.00132923
Gmin = 0.000142725
Gmin = 1.5325e-005
Gmin = 1.6455e-006
Gmin = 1.76685e-007
Gmin = 1.89714e-008
Gmin = 2.03704e-009
Gmin = 2.18725e-010
Gmin = 2.34854e-011
Gmin = 2.52173e-012
Gmin = 2.70769e-013
Gmin = 0
Gmin stepping succeeded in finding the operating point.


Date: Sun Apr 04 17:18:11 2021
Total elapsed time: 1.783 seconds.

tnom = 27
temp = 27
method = modified trap
totiter = 8020
traniter = 7583
tranpoints = 2596
accept = 2151
rejected = 445
matrix size = 611
fillins = 54
solver = Normal
Thread vector: 495.1/178.1[12] 31.4/14.8[12] 15.2/8.0[12] 2.2/10.2[1]  2592/500
Matrix Compiler1: 92.55 KB object code size  31.1/14.4/[11.2]
Matrix Compiler2: 77.41 KB object code size  18.1/12.5/[3.5]

