Circuit: * D:\Clones\LINFO1140\T5 - bis\Circuit\Circuit.asc

Direct Newton iteration for .op point succeeded.

Date: Sun Mar 14 02:07:06 2021
Total elapsed time: 0.047 seconds.

tnom = 27
temp = 27
method = modified trap
totiter = 2124
traniter = 2121
tranpoints = 1061
accept = 1057
rejected = 4
matrix size = 8
fillins = 0
solver = Normal
Matrix Compiler1: 246 bytes object code size  0.1/0.1/[0.0]
Matrix Compiler2: off  [0.0]/0.1/0.1

