Circuit: * C:\users\barghest\Desktop\LINFO1140\T7 - Diagramme de Karnaugh\Circuit\circuit.asc

Warning: Multiple definitions of model "aons66402" Type: Vdmos1
Direct Newton iteration for .op point succeeded.

Date: Sat Mar 27 11:02:42 2021
Total elapsed time: 0.322 seconds.

tnom = 27
temp = 27
method = modified trap
totiter = 4711
traniter = 4691
tranpoints = 1738
accept = 1572
rejected = 166
matrix size = 194
fillins = 18
solver = Normal
Thread vector: 52.4/34.7[3] 7.4/4.7[3] 2.6/2.1[3] 0.8/1.0[1]  2592/500
Matrix Compiler1: 23.54 KB object code size  5.3/2.2/[1.6]
Matrix Compiler2: 22.71 KB object code size  2.7/2.6/[1.3]

