Circuit: * D:\Clones\LINFO1140\T4 - Circuits RC\Circuit.asc

Direct Newton iteration for .op point succeeded.

Date: Sat Mar 06 23:10:05 2021
Total elapsed time: 0.018 seconds.

tnom = 27
temp = 27
method = modified trap
totiter = 2124
traniter = 2121
tranpoints = 1061
accept = 1057
rejected = 4
matrix size = 7
fillins = 0
solver = Normal
Matrix Compiler1:      11 opcodes  0.1/[0.0]/0.1
Matrix Compiler2: off  [0.1]/0.1/0.1

