Circuit: * Z:\home\barghest\Desktop\final\Circuits\main.asc

Warning: Multiple definitions of model "aons66402" Type: Vdmos1
Direct Newton iteration failed to find .op point.  (Use ".option noopiter" to skip.)
Starting Gmin stepping
Gmin = 10
Gmin = 1.07374
Gmin = 0.115292
Gmin = 0.0123794
Gmin = 0.00132923
Gmin = 0.000142725
Gmin = 1.5325e-005
Gmin = 1.6455e-006
Gmin = 1.76685e-007
Gmin = 1.89714e-008
Gmin = 2.03704e-009
Gmin = 2.18725e-010
Gmin = 2.34854e-011
Gmin = 2.52173e-012
Gmin = 2.70769e-013
Gmin = 0
Gmin stepping succeeded in finding the operating point.


Date: Sat May 01 20:56:02 2021
Total elapsed time: 3.650 seconds.

tnom = 27
temp = 27
method = modified trap
totiter = 5835
traniter = 5398
tranpoints = 1719
accept = 1518
rejected = 201
matrix size = 1540
fillins = 248
solver = Normal
Thread vector: 560.0/278.0[12] 67.8/34.6[12] 31.6/14.5[12] 7.1/22.7[1]  2592/500
Matrix Compiler1: 238.88 KB object code size  107.6/46.5/[39.1]
Matrix Compiler2: 193.71 KB object code size  39.5/30.2/[12.7]

