Circuit: * D:\Clones\LINFO1140\T2 - Circuits DC - Méthode des noeuds\Draft1.asc

Direct Newton iteration for .op point succeeded.

Date: Fri Feb 26 19:21:32 2021
Total elapsed time: 0.015 seconds.

tnom = 27
temp = 27
method = trap
totiter = 3
traniter = 0
tranpoints = 0
accept = 0
rejected = 0
matrix size = 7
fillins = 0
solver = Normal
Matrix Compiler1: 214 bytes object code size
Matrix Compiler2: 473 bytes object code size
