Circuit: * D:\Clones\LINFO1140\T2 - Circuits DC - Méthode des noeuds\T2.asc

Direct Newton iteration for .op point succeeded.

Date: Wed Feb 17 13:53:01 2021
Total elapsed time: 0.016 seconds.

tnom = 27
temp = 27
method = trap
totiter = 3
traniter = 0
tranpoints = 0
accept = 0
rejected = 0
matrix size = 5
fillins = 0
solver = Normal
Matrix Compiler1: 150 bytes object code size
Matrix Compiler2: 321 bytes object code size
